
  NIST    07011522483D 1   1.00000  -694.35701
Copyright by the U.S. Sec. Commerce on behalf of U.S.A. All rights reserved.
 32 34  0  0  0  0  0  0  0  0999 V2000
    5.2393    4.4764    2.7660 C    0  0  0  0  0  0  0  0  0  0  0  0
    4.9107    3.5028    1.7896 C    0  0  0  0  0  0  0  0  0  0  0  0
    6.5283    5.0358    2.7520 C    0  0  0  0  0  0  0  0  0  0  0  0
    4.3018    4.9149    3.8411 C    0  0  0  0  0  0  0  0  0  0  0  0
    5.8954    3.1175    0.8641 C    0  0  0  0  0  0  0  0  0  0  0  0
    3.5566    2.8893    1.6604 C    0  0  0  0  0  0  0  0  0  0  0  0
    7.4879    4.6487    1.8198 C    0  0  0  0  0  0  0  0  0  0  0  0
    3.6549    3.9874    4.6743 C    0  0  0  0  0  0  0  0  0  0  0  0
    4.0944    6.2829    4.0819 C    0  0  0  0  0  0  0  0  0  0  0  0
    7.1711    3.6764    0.8723 C    0  0  0  0  0  0  0  0  0  0  0  0
    2.3987    3.6793    1.5711 C    0  0  0  0  0  0  0  0  0  0  0  0
    3.4197    1.4950    1.5609 C    0  0  0  0  0  0  0  0  0  0  0  0
    2.8270    4.4152    5.7107 C    0  0  0  0  0  0  0  0  0  0  0  0
    3.2620    6.7118    5.1164 C    0  0  0  0  0  0  0  0  0  0  0  0
    1.1469    3.0934    1.3916 C    0  0  0  0  0  0  0  0  0  0  0  0
    2.1662    0.9076    1.3859 C    0  0  0  0  0  0  0  0  0  0  0  0
    2.6253    5.7788    5.9356 C    0  0  0  0  0  0  0  0  0  0  0  0
    1.0245    1.7051    1.2999 C    0  0  0  0  0  0  0  0  0  0  0  0
    6.7839    5.7675    3.5135 H    0  0  0  0  0  0  0  0  0  0  0  0
    5.6342    2.3853    0.1051 H    0  0  0  0  0  0  0  0  0  0  0  0
    8.4777    5.0969    1.8416 H    0  0  0  0  0  0  0  0  0  0  0  0
    3.8097    2.9253    4.5111 H    0  0  0  0  0  0  0  0  0  0  0  0
    4.5799    7.0141    3.4408 H    0  0  0  0  0  0  0  0  0  0  0  0
    7.9067    3.3610    0.1371 H    0  0  0  0  0  0  0  0  0  0  0  0
    2.4845    4.7596    1.6348 H    0  0  0  0  0  0  0  0  0  0  0  0
    4.3045    0.8682    1.6367 H    0  0  0  0  0  0  0  0  0  0  0  0
    2.3408    3.6804    6.3473 H    0  0  0  0  0  0  0  0  0  0  0  0
    3.1100    7.7757    5.2794 H    0  0  0  0  0  0  0  0  0  0  0  0
    0.2646    3.7240    1.3189 H    0  0  0  0  0  0  0  0  0  0  0  0
    2.0830   -0.1742    1.3195 H    0  0  0  0  0  0  0  0  0  0  0  0
    1.9777    6.1104    6.7430 H    0  0  0  0  0  0  0  0  0  0  0  0
    0.0475    1.2497    1.1620 H    0  0  0  0  0  0  0  0  0  0  0  0
  1  3  1  0  0  0  0
  1  4  1  0  0  0  0
  2  1  2  0  0  0  0
  2  6  1  0  0  0  0
  3  7  2  0  0  0  0
  3 19  1  0  0  0  0
  4  8  2  0  0  0  0
  5  2  1  0  0  0  0
  5 20  1  0  0  0  0
  6 12  1  0  0  0  0
  7 10  1  0  0  0  0
  7 21  1  0  0  0  0
  8 13  1  0  0  0  0
  8 22  1  0  0  0  0
  9  4  1  0  0  0  0
  9 23  1  0  0  0  0
 10  5  2  0  0  0  0
 10 24  1  0  0  0  0
 11  6  2  0  0  0  0
 11 25  1  0  0  0  0
 12 16  2  0  0  0  0
 12 26  1  0  0  0  0
 13 17  2  0  0  0  0
 13 27  1  0  0  0  0
 14  9  2  0  0  0  0
 14 28  1  0  0  0  0
 15 11  1  0  0  0  0
 15 29  1  0  0  0  0
 16 18  1  0  0  0  0
 16 30  1  0  0  0  0
 17 14  1  0  0  0  0
 17 31  1  0  0  0  0
 18 15  2  0  0  0  0
 18 32  1  0  0  0  0
M  END
> <COPYRIGHT>
Collection (C) 2016 copyright by the U.S. Secretary of Commerce on behalf of the United States of America. All rights reserved.

> <DATE>
2015-07-01

> <CAS.NUMBER>
84-15-1

> <METHOD>
B3LYP/6-31G*

> <DIPOLE.MOMENT>
0.1071 debye

> <ELECTRONIC.ENERGY>
-694.357014520 hartree

> <IR.FREQUENCIES>
"Frequency (cm-1)"   "Intensity (km/mol)"
52.6642  0.0215
53.7055  0.0714
63.1924  0.0378
97.0696  0.0059
104.3725  0.8006
135.5863  0.1414
235.5080  0.0958
256.5623  0.0472
275.6565  0.0009
323.8709  0.3124
365.1529  0.0288
401.5943  0.4472
418.4642  0.0510
419.2888  0.3347
515.1485  2.1844
532.8955  3.5319
569.8793  7.4159
571.5684  0.1017
625.7981  5.1025
629.5127  1.8970
636.1307  0.2929
638.6079  2.3172
714.7017  8.7170
716.6825  44.0175
724.0355  1.0195
755.4640  4.4328
765.6536  70.3977
787.2457  1.7076
791.1876  9.4970
793.0835  9.9940
861.5338  0.1498
862.5151  0.2627
893.6913  0.0056
929.5802  4.4765
933.3170  1.4605
958.2162  1.1443
969.3511  0.1365
970.2425  0.3759
987.2366  0.1216
994.8300  0.5755
995.3742  0.2520
1017.1845  1.5351
1017.5719  0.2901
1024.2037  5.3050
1026.6683  4.2950
1064.8196  0.8206
1065.7236  0.4210
1094.0429  1.7227
1109.1670  6.2549
1111.8772  0.0869
1146.3365  0.4583
1192.5458  0.1006
1192.9468  0.0010
1197.5335  0.1546
1215.5277  1.4452
1216.3675  0.0082
1274.8493  0.3482
1292.5816  0.9630
1312.1516  3.0332
1325.2794  0.0282
1340.8326  0.5582
1342.2142  0.1165
1365.5181  0.7908
1367.7039  0.0239
1474.2767  8.8966
1488.2231  4.9074
1499.8277  4.1337
1523.7133  26.3692
1545.0024  7.2483
1551.4151  0.9831
1617.5843  0.0199
1633.5802  2.8723
1638.5179  0.2614
1654.5157  0.9056
1661.3932  4.2452
1661.5755  4.1462
3178.9076  3.0931
3179.3764  3.0274
3182.6472  0.3958
3186.7503  3.1255
3187.1500  5.2363
3191.9456  12.8844
3196.2293  23.1248
3196.7760  21.0754
3201.4528  17.4704
3205.6309  53.3075
3205.9196  26.6773
3210.8177  31.7009
3213.8722  7.7278
3214.3598  8.3177

> <ROTATIONAL.CONSTANTS>
0.49701 GHz
0.42977 GHz
0.25663 GHz

> <SOFTWARE>
Gaussian 09, Revision D.01

> <CONTRIBUTOR>
Ashley Zhang

$$$$
